SC_Cases/matpower_rural.m
function mpc = matpower_rural
%Please see CASEFORMAT for details on the case file format.
% MATPOWER Case Format : Version 2
mpc.version = '2';
%-----  Power Flow Data  -----%%
% system MVA base
mpc.baseMVA = 1;
% bus data
%bus_i type Pd	Qd Gs Bs area Vm Va baseKV zone	Vmax Vmin
mpc.bus = [
1	3	0	0	0	0	1	1	0	132	1	1	1;
2	1	0.0004	0.00012	0	0	1	1	0	0.4	1	1.1	0.9;
3	1	0.0004	0.00012	0	0	1	1	0	0.4	1	1.1	0.9;
4	1	0.0004	0.00012	0	0	1	1	0	0.4	1	1.1	0.9;
5	1	0.0004	0.00012	0	0	1	1	0	0.4	1	1.1	0.9;
6	1	0.0004	0.00012	0	0	1	1	0	0.4	1	1.1	0.9;
7	1	0.0004	0.00012	0	0	1	1	0	0.4	1	1.1	0.9;
8	1	0.0004	0.00012	0	0	1	1	0	0.4	1	1.1	0.9;
9	1	0.0004	0.00012	0	0	1	1	0	0.4	1	1.1	0.9;
10	1	0.0004	0.00012	0	0	1	1	0	0.4	1	1.1	0.9;
11	1	0.0004	0.00012	0	0	1	1	0	0.4	1	1.1	0.9;
12	1	0.0004	0.00012	0	0	1	1	0	0.4	1	1.1	0.9;
13	1	0.0004	0.00012	0	0	1	1	0	0.4	1	1.1	0.9;
14	1	0.0004	0.00012	0	0	1	1	0	0.4	1	1.1	0.9;
15	1	0.0004	0.00012	0	0	1	1	0	0.4	1	1.1	0.9;
16	1	0.0004	0.00012	0	0	1	1	0	0.4	1	1.1	0.9;
17	1	0.0004	0.00012	0	0	1	1	0	0.4	1	1.1	0.9;
18	1	0.0004	0.00012	0	0	1	1	0	0.4	1	1.1	0.9;
19	1	0.0004	0.00012	0	0	1	1	0	0.4	1	1.1	0.9;
20	1	0.0004	0.00012	0	0	1	1	0	0.4	1	1.1	0.9;
21	1	0.0004	0.00012	0	0	1	1	0	0.4	1	1.1	0.9;
22	1	0.0004	0.00012	0	0	1	1	0	0.4	1	1.1	0.9;
23	1	0.0004	0.00012	0	0	1	1	0	0.4	1	1.1	0.9;
24	1	0.0004	0.00012	0	0	1	1	0	0.4	1	1.1	0.9;
25	1	0.0004	0.00012	0	0	1	1	0	0.4	1	1.1	0.9;
26	1	0.0004	0.00012	0	0	1	1	0	0.4	1	1.1	0.9;
27	1	0.0004	0.00012	0	0	1	1	0	0.4	1	1.1	0.9;
28	1	0.0004	0.00012	0	0	1	1	0	0.4	1	1.1	0.9;
29	1	0.0004	0.00012	0	0	1	1	0	0.4	1	1.1	0.9;
30	1	0.0004	0.00012	0	0	1	1	0	0.4	1	1.1	0.9;
31	1	0.0004	0.00012	0	0	1	1	0	0.4	1	1.1	0.9;
32	1	0.0004	0.00012	0	0	1	1	0	0.4	1	1.1	0.9;
33	1	0.0004	0.00012	0	0	1	1	0	0.4	1	1.1	0.9;
34	1	0.0004	0.00012	0	0	1	1	0	0.4	1	1.1	0.9;
35	1	0.0004	0.00012	0	0	1	1	0	0.4	1	1.1	0.9;
36	1	0.0004	0.00012	0	0	1	1	0	0.4	1	1.1	0.9;
37	1	0.0004	0.00012	0	0	1	1	0	0.4	1	1.1	0.9;
38	1	0.0004	0.00012	0	0	1	1	0	0.4	1	1.1	0.9;
39	1	0.0004	0.00012	0	0	1	1	0	0.4	1	1.1	0.9;
40	1	0.0004	0.00012	0	0	1	1	0	0.4	1	1.1	0.9;
41	1	0.0004	0.00012	0	0	1	1	0	0.4	1	1.1	0.9;
42	1	0.0004	0.00012	0	0	1	1	0	0.4	1	1.1	0.9;
43	1	0.0004	0.00012	0	0	1	1	0	0.4	1	1.1	0.9;
44	1	0.0004	0.00012	0	0	1	1	0	0.4	1	1.1	0.9;
45	1	0.0004	0.00012	0	0	1	1	0	0.4	1	1.1	0.9;
46	1	0.0004	0.00012	0	0	1	1	0	0.4	1	1.1	0.9;
47	1	0.0004	0.00012	0	0	1	1	0	0.4	1	1.1	0.9;
48	1	0.0004	0.00012	0	0	1	1	0	0.4	1	1.1	0.9;
49	1	0.0004	0.00012	0	0	1	1	0	0.4	1	1.1	0.9;
50	1	0.0004	0.00012	0	0	1	1	0	0.4	1	1.1	0.9;
51	1	0.0004	0.00012	0	0	1	1	0	0.4	1	1.1	0.9;
52	1	0.0004	0.00012	0	0	1	1	0	0.4	1	1.1	0.9;
53	1	0.0004	0.00012	0	0	1	1	0	0.4	1	1.1	0.9;
54	1	0.0004	0.00012	0	0	1	1	0	0.4	1	1.1	0.9;
55	1	0.0004	0.00012	0	0	1	1	0	0.4	1	1.1	0.9;
56	1	0.0004	0.00012	0	0	1	1	0	0.4	1	1.1	0.9;
57	1	0.0004	0.00012	0	0	1	1	0	0.4	1	1.1	0.9;
58	1	0.0004	0.00012	0	0	1	1	0	0.4	1	1.1	0.9;
59	1	0.0004	0.00012	0	0	1	1	0	0.4	1	1.1	0.9;
60	1	0.0004	0.00012	0	0	1	1	0	0.4	1	1.1	0.9;
61	1	0.0004	0.00012	0	0	1	1	0	0.4	1	1.1	0.9;
62	1	0.0004	0.00012	0	0	1	1	0	0.4	1	1.1	0.9;
63	1	0.0004	0.00012	0	0	1	1	0	0.4	1	1.1	0.9;
64	1	0.0004	0.00012	0	0	1	1	0	0.4	1	1.1	0.9;
65	1	0.0004	0.00012	0	0	1	1	0	0.4	1	1.1	0.9;
66	1	0.0004	0.00012	0	0	1	1	0	0.4	1	1.1	0.9;
67	1	0.0004	0.00012	0	0	1	1	0	0.4	1	1.1	0.9;
68	1	0.0004	0.00012	0	0	1	1	0	0.4	1	1.1	0.9;
69	1	0.0004	0.00012	0	0	1	1	0	0.4	1	1.1	0.9;
70	1	0.0004	0.00012	0	0	1	1	0	0.4	1	1.1	0.9;
71	1	0.0004	0.00012	0	0	1	1	0	0.4	1	1.1	0.9;
72	1	0.0004	0.00012	0	0	1	1	0	0.4	1	1.1	0.9;
73	1	0.0004	0.00012	0	0	1	1	0	0.4	1	1.1	0.9;
74	1	0.0004	0.00012	0	0	1	1	0	0.4	1	1.1	0.9;
75	1	0.0004	0.00012	0	0	1	1	0	0.4	1	1.1	0.9;
76	1	0.0004	0.00012	0	0	1	1	0	0.4	1	1.1	0.9;
77	1	0.0004	0.00012	0	0	1	1	0	0.4	1	1.1	0.9;
78	1	0.0004	0.00012	0	0	1	1	0	0.4	1	1.1	0.9;
79	1	0.0004	0.00012	0	0	1	1	0	0.4	1	1.1	0.9;
80	1	0.0004	0.00012	0	0	1	1	0	0.4	1	1.1	0.9;
81	1	0.0004	0.00012	0	0	1	1	0	0.4	1	1.1	0.9;
82	1	0.0004	0.00012	0	0	1	1	0	0.4	1	1.1	0.9;
83	1	0.0004	0.00012	0	0	1	1	0	0.4	1	1.1	0.9;
84	1	0.0004	0.00012	0	0	1	1	0	0.4	1	1.1	0.9;
85	1	0.0004	0.00012	0	0	1	1	0	0.4	1	1.1	0.9;
86	1	0.0004	0.00012	0	0	1	1	0	0.4	1	1.1	0.9;
87	1	0.0004	0.00012	0	0	1	1	0	0.4	1	1.1	0.9;
88	1	0.0004	0.00012	0	0	1	1	0	0.4	1	1.1	0.9;
89	1	0.0004	0.00012	0	0	1	1	0	0.4	1	1.1	0.9;
90	1	0.0004	0.00012	0	0	1	1	0	0.4	1	1.1	0.9;
91	1	0.0004	0.00012	0	0	1	1	0	0.4	1	1.1	0.9;
92	1	0.0004	0.00012	0	0	1	1	0	0.4	1	1.1	0.9;
93	1	0.0004	0.00012	0	0	1	1	0	0.4	1	1.1	0.9;
94	1	0.0004	0.00012	0	0	1	1	0	0.4	1	1.1	0.9;
95	1	0.0004	0.00012	0	0	1	1	0	0.4	1	1.1	0.9;
96	1	0.0004	0.00012	0	0	1	1	0	0.4	1	1.1	0.9;
97	1	0.0004	0.00012	0	0	1	1	0	0.4	1	1.1	0.9;
98	1	0.0004	0.00012	0	0	1	1	0	0.4	1	1.1	0.9;
99	1	0.0004	0.00012	0	0	1	1	0	0.4	1	1.1	0.9;
100	1	0.0004	0.00012	0	0	1	1	0	0.4	1	1.1	0.9;
101	1	0.0004	0.00012	0	0	1	1	0	0.4	1	1.1	0.9;
102	1	0.0004	0.00012	0	0	1	1	0	0.4	1	1.1	0.9;
103	1	0.0004	0.00012	0	0	1	1	0	0.4	1	1.1	0.9;
104	1	0.0004	0.00012	0	0	1	1	0	0.4	1	1.1	0.9;
105	1	0.0004	0.00012	0	0	1	1	0	0.4	1	1.1	0.9;
106	1	0.0004	0.00012	0	0	1	1	0	0.4	1	1.1	0.9;
107	1	0.0004	0.00012	0	0	1	1	0	0.4	1	1.1	0.9;
108	1	0.0004	0.00012	0	0	1	1	0	0.4	1	1.1	0.9;
109	1	0.0004	0.00012	0	0	1	1	0	0.4	1	1.1	0.9;
110	1	0.0004	0.00012	0	0	1	1	0	0.4	1	1.1	0.9;
111	1	0.0004	0.00012	0	0	1	1	0	0.4	1	1.1	0.9;
112	1	0.0004	0.00012	0	0	1	1	0	0.4	1	1.1	0.9;
113	1	0.0004	0.00012	0	0	1	1	0	0.4	1	1.1	0.9;
114	1	0.0004	0.00012	0	0	1	1	0	0.4	1	1.1	0.9;
115	1	0.0004	0.00012	0	0	1	1	0	0.4	1	1.1	0.9;
116	1	0.0004	0.00012	0	0	1	1	0	0.4	1	1.1	0.9;
117	1	0.0004	0.00012	0	0	1	1	0	0.4	1	1.1	0.9;
118	1	0.0004	0.00012	0	0	1	1	0	0.4	1	1.1	0.9;
119	1	0.0004	0.00012	0	0	1	1	0	0.4	1	1.1	0.9;
120	1	0.0004	0.00012	0	0	1	1	0	0.4	1	1.1	0.9;
121	1	0.0004	0.00012	0	0	1	1	0	0.4	1	1.1	0.9;
122	1	0.0004	0.00012	0	0	1	1	0	0.4	1	1.1	0.9;
123	1	0.0004	0.00012	0	0	1	1	0	0.4	1	1.1	0.9;
124	1	0.0004	0.00012	0	0	1	1	0	0.4	1	1.1	0.9;
125	1	0.0004	0.00012	0	0	1	1	0	0.4	1	1.1	0.9;
126	1	0.0004	0.00012	0	0	1	1	0	0.4	1	1.1	0.9;
127	1	0.0004	0.00012	0	0	1	1	0	0.4	1	1.1	0.9;
128	1	0.0004	0.00012	0	0	1	1	0	0.4	1	1.1	0.9;
129	1	0.0004	0.00012	0	0	1	1	0	0.4	1	1.1	0.9;
130	1	0.0004	0.00012	0	0	1	1	0	0.4	1	1.1	0.9;
131	1	0.0004	0.00012	0	0	1	1	0	0.4	1	1.1	0.9;
132	1	0.0004	0.00012	0	0	1	1	0	0.4	1	1.1	0.9;
133	1	0.0004	0.00012	0	0	1	1	0	0.4	1	1.1	0.9;
134	1	0.0004	0.00012	0	0	1	1	0	0.4	1	1.1	0.9;
135	1	0.0004	0.00012	0	0	1	1	0	0.4	1	1.1	0.9;
136	1	0.0004	0.00012	0	0	1	1	0	0.4	1	1.1	0.9;
137	1	0.0004	0.00012	0	0	1	1	0	0.4	1	1.1	0.9;
138	1	0.0004	0.00012	0	0	1	1	0	0.4	1	1.1	0.9;
139	1	0.0004	0.00012	0	0	1	1	0	0.4	1	1.1	0.9;
140	1	0.0004	0.00012	0	0	1	1	0	0.4	1	1.1	0.9;
141	1	0.0004	0.00012	0	0	1	1	0	0.4	1	1.1	0.9;
142	1	0.0004	0.00012	0	0	1	1	0	0.4	1	1.1	0.9;
143	1	0.0004	0.00012	0	0	1	1	0	0.4	1	1.1	0.9;
144	1	0.0004	0.00012	0	0	1	1	0	0.4	1	1.1	0.9;
145	1	0.0004	0.00012	0	0	1	1	0	0.4	1	1.1	0.9;
146	1	0.0004	0.00012	0	0	1	1	0	0.4	1	1.1	0.9;
147	1	0.0004	0.00012	0	0	1	1	0	0.4	1	1.1	0.9;
148	1	0.0004	0.00012	0	0	1	1	0	0.4	1	1.1	0.9;
149	1	0.0004	0.00012	0	0	1	1	0	0.4	1	1.1	0.9;
150	1	0.0004	0.00012	0	0	1	1	0	0.4	1	1.1	0.9;
151	1	0.0004	0.00012	0	0	1	1	0	0.4	1	1.1	0.9;
152	1	0.0004	0.00012	0	0	1	1	0	0.4	1	1.1	0.9;
153	1	0.0004	0.00012	0	0	1	1	0	0.4	1	1.1	0.9;
154	1	0.0004	0.00012	0	0	1	1	0	0.4	1	1.1	0.9;
155	1	0.0004	0.00012	0	0	1	1	0	0.4	1	1.1	0.9;
156	1	0.0004	0.00012	0	0	1	1	0	0.4	1	1.1	0.9;
157	1	0.0004	0.00012	0	0	1	1	0	0.4	1	1.1	0.9;
158	1	0.0004	0.00012	0	0	1	1	0	0.4	1	1.1	0.9;
159	1	0.0004	0.00012	0	0	1	1	0	0.4	1	1.1	0.9;
160	1	0.0004	0.00012	0	0	1	1	0	0.4	1	1.1	0.9;
161	1	0.0004	0.00012	0	0	1	1	0	0.4	1	1.1	0.9;
162	1	0.0004	0.00012	0	0	1	1	0	0.4	1	1.1	0.9;
163	1	0.0004	0.00012	0	0	1	1	0	0.4	1	1.1	0.9;
164	1	0.0004	0.00012	0	0	1	1	0	0.4	1	1.1	0.9;
165	1	0.0004	0.00012	0	0	1	1	0	0.4	1	1.1	0.9;
166	1	0.0004	0.00012	0	0	1	1	0	0.4	1	1.1	0.9;
167	1	0.0004	0.00012	0	0	1	1	0	0.4	1	1.1	0.9;
168	1	0.0004	0.00012	0	0	1	1	0	0.4	1	1.1	0.9;
169	1	0.0004	0.00012	0	0	1	1	0	0.4	1	1.1	0.9;
170	1	0.0004	0.00012	0	0	1	1	0	0.4	1	1.1	0.9;
171	1	0.0004	0.00012	0	0	1	1	0	0.4	1	1.1	0.9;
172	1	0.0004	0.00012	0	0	1	1	0	0.4	1	1.1	0.9;
173	1	0.0004	0.00012	0	0	1	1	0	0.4	1	1.1	0.9;
174	1	0.0004	0.00012	0	0	1	1	0	0.4	1	1.1	0.9;
175	1	0.0004	0.00012	0	0	1	1	0	0.4	1	1.1	0.9;
176	1	0.0004	0.00012	0	0	1	1	0	0.4	1	1.1	0.9;
177	1	0.0004	0.00012	0	0	1	1	0	0.4	1	1.1	0.9;
178	1	0.0004	0.00012	0	0	1	1	0	0.4	1	1.1	0.9;
179	1	0.0004	0.00012	0	0	1	1	0	0.4	1	1.1	0.9;
180	1	0.0004	0.00012	0	0	1	1	0	0.4	1	1.1	0.9;
181	1	0.0004	0.00012	0	0	1	1	0	0.4	1	1.1	0.9;
182	1	0.0004	0.00012	0	0	1	1	0	0.4	1	1.1	0.9;
183	1	0.0004	0.00012	0	0	1	1	0	0.4	1	1.1	0.9;
184	1	0.0004	0.00012	0	0	1	1	0	0.4	1	1.1	0.9;
185	1	0.0004	0.00012	0	0	1	1	0	0.4	1	1.1	0.9;
186	1	0.0004	0.00012	0	0	1	1	0	0.4	1	1.1	0.9;
187	1	0.0004	0.00012	0	0	1	1	0	0.4	1	1.1	0.9;
188	1	0.0004	0.00012	0	0	1	1	0	0.4	1	1.1	0.9;
189	1	0.0004	0.00012	0	0	1	1	0	0.4	1	1.1	0.9;
190	1	0.0004	0.00012	0	0	1	1	0	0.4	1	1.1	0.9;
191	1	0.0004	0.00012	0	0	1	1	0	0.4	1	1.1	0.9;
192	1	0.0004	0.00012	0	0	1	1	0	0.4	1	1.1	0.9;
193	1	0.0004	0.00012	0	0	1	1	0	0.4	1	1.1	0.9;
194	1	0.0004	0.00012	0	0	1	1	0	0.4	1	1.1	0.9;
195	1	0.0004	0.00012	0	0	1	1	0	0.4	1	1.1	0.9;
196	1	0.0004	0.00012	0	0	1	1	0	0.4	1	1.1	0.9;
197	1	0.0004	0.00012	0	0	1	1	0	0.4	1	1.1	0.9;
198	1	0.0004	0.00012	0	0	1	1	0	0.4	1	1.1	0.9;
199	1	0.0004	0.00012	0	0	1	1	0	0.4	1	1.1	0.9;
200	1	0.0004	0.00012	0	0	1	1	0	0.4	1	1.1	0.9;
...
];
%% generator data
% bus Pg Qg Qmax Qmin Vg mBase status Pmax Pmin Pc1 Pc2 Qc1min Qc1max Qc2min Qc2max ramp_agc ramp_10 ramp_30 ramp_q apf
mpc.gen = [
1 0 0 1000 -1000 1.0 1 1 1000 0 0 0 0 0 0 0 0 0 0 0 0];
%% branch data
%fbus tbus	r x b rA rB rC rat ang status angmin angmax
mpc.branch = [
1636	1689	0.126894	0.0195225	0	0.103923	0.103923	0.103923	0	0	1	-360	360;
1416	1005	0.14485	    0.0103463	0	0.069282	0.069282	0.069282	0	0	1	-360	360;
1409	4827	0.0436013	0.008385	0	0.176669	0.176669	0.176669	0	0	1	-360	360;
1410	2583	0.163606	0.0116863	0	0.069282	0.069282	0.069282	0	0	1	-360	360;
1411	4902	0.143275	0.0220419	0	0.103923	0.103923	0.103923	0	0	1	-360	360;
1412	5282	0.034125	0.0065625	0	0.176669	0.176669	0.176669	0	0	1	-360	360;
1413	2228	0.0224669	0.00702125	0	0.159349	0.159349	0.159349	0	0	1	-360	360;
1414	2958	0.068675	0.00490538	0	0.069282	0.069282	0.069282	0	0	1	-360	360;
1415	1386	0.144775	0.0103413	0	0.069282	0.069282	0.069282	0	0	1	-360	360;
2	     946	0.00782625	0.00244569	0	0.159349	0.159349	0.159349	0	0	1	-360	360;
3	1241	0.21825	0.0155894	0	0.069282	0.069282	0.069282	0	0	1	-360	360;
4	3242	0.139019	0.00993	0	0.069282	0.069282	0.069282	0	0	1	-360	360;
5	1679	0.173737	0.01241	0	0.069282	0.069282	0.069282	0	0	1	-360	360;
126	3640	0.156587	0.011185	0	0.069282	0.069282	0.069282	0	0	1	-360	360;
127	6617	0.01789	0.00559056	0	0.159349	0.159349	0.159349	0	0	1	-360	360;
128	5909	0.0554588	0.00853187	0	0.103923	0.103923	0.103923	0	0	1	-360	360;
1455	1414	0.0307125	0.00219375	0	0.069282	0.069282	0.069282	0	0	1	-360	360;
26	21	0.1086	0.00775687	0	0.069282	0.069282	0.069282	0	0	1	-360	360;
27	4064	0.126631	0.009045	0	0.069282	0.069282	0.069282	0	0	1	-360	360;
28	1907	0.11175	0.0079825	0	0.069282	0.069282	0.069282	0	0	1	-360	360;
29	5914	0.145625	0.0104019	0	0.069282	0.069282	0.069282	0	0	1	-360	360;
30	1312	0.046375	0.0033125	0	0.069282	0.069282	0.069282	0	0	1	-360	360;
31	5037	0.0485331	0.00346663	0	0.069282	0.069282	0.069282	0	0	1	-360	360;
32	3833	0.0581494	0.0111825	0	0.176669	0.176669	0.176669	0	0	1	-360	360;
33	5377	0.03424	0.00244569	0	0.069282	0.069282	0.069282	0	0	1	-360	360;
34	966	0.0518856	0.0079825	0	0.103923	0.103923	0.103923	0	0	1	-360	360;
35	3372	0.0982938	0.00702125	0	0.069282	0.069282	0.069282	0	0	1	-360	360;
36	4558	0.208781	0.0149131	0	0.069282	0.069282	0.069282	0	0	1	-360	360;
37	1460	0.0928438	0.0142838	0	0.103923	0.103923	0.103923	0	0	1	-360	360;
38	54	0.194162	0.0138688	0	0.069282	0.069282	0.069282	0	0	1	-360	360;
39	4918	0.14485	0.0103463	0	0.069282	0.069282	0.069282	0	0	1	-360	360;
40	3590	0.1512	0.0108	0	0.069282	0.069282	0.069282	0	0	1	-360	360;
41	1996	0.184881	0.0132056	0	0.069282	0.069282	0.069282	0	0	1	-360	360;
42	3604	0.0267181	0.00834938	0	0.159349	0.159349	0.159349	0	0	1	-360	360;
43	3071	0.0421006	0.00809625	0	0.176669	0.176669	0.176669	0	0	1	-360	360;
44	2488	0.1797	0.0128356	0	0.069282	0.069282	0.069282	0	0	1	-360	360;
45	2396	0.204738	0.0146244	0	0.069282	0.069282	0.069282	0	0	1	-360	360;
46	1663	0.0934125	0.0066725	0	0.069282	0.069282	0.069282	0	0	1	-360	360;
47	1318	0.1512	0.0108	0	0.069282	0.069282	0.069282	0	0	1	-360	360;
48	5003	0.240425	0.0171731	0	0.069282	0.069282	0.069282	0	0	1	-360	360;
49	3468	0.131219	0.0093725	0	0.069282	0.069282	0.069282	0	0	1	-360	360;
50	2175	0.073375	0.0112888	0	0.103923	0.103923	0.103923	0	0	1	-360	360;
51	197	0.0405338	0.00623594	0	0.103923	0.103923	0.103923	0	0	1	-360	360;
52	106	0.067625	0.0104038	0	0.103923	0.103923	0.103923	0	0	1	-360	360;
53	2014	0.0933313	0.00666625	0	0.069282	0.069282	0.069282	0	0	1	-360	360;
54	6594	0.0148775	0.00464925	0	0.159349	0.159349	0.159349	0	0	1	-360	360;
55	2180	0.0703312	0.0108206	0	0.103923	0.103923	0.103923	0	0	1	-360	360;
56	3960	0.0604937	0.0116338	0	0.176669	0.176669	0.176669	0	0	1	-360	360;
57	6009	0.018885	0.00590162	0	0.159349	0.159349	0.159349	0	0	1	-360	360;
58	5651	0.0204531	0.00639125	0	0.159349	0.159349	0.159349	0	0	1	-360	360;
59	1369	0.200094	0.0142925	0	0.069282	0.069282	0.069282	0	0	1	-360	360;
60	1463	0.110663	0.00790437	0	0.069282	0.069282	0.069282	0	0	1	-360	360;
61	613	0.0383756	0.00590394	0	0.103923	0.103923	0.103923	0	0	1	-360	360;
62	6618	0.603838	0.0431312	0	0.069282	0.069282	0.069282	0	0	1	-360	360;
63	4545	0.0409331	0.0127919	0	0.159349	0.159349	0.159349	0	0	1	-360	360;
64	2701	0.0201369	0.003098	0	0.103923	0.103923	0.103923	0	0	1	-360	360;
65	5648	0.234788	0.0167706	0	0.069282	0.069282	0.069282	0	0	1	-360	360;
66	4409	0.175025	0.0125019	0	0.069282	0.069282	0.069282	0	0	1	-360	360;
67	4986	0.08055	0.0123919	0	0.103923	0.103923	0.103923	0	0	1	-360	360;
68	4615	0.0727063	0.0111863	0	0.103923	0.103923	0.103923	0	0	1	-360	360;
69	2798	0.0758	0.0116613	0	0.103923	0.103923	0.103923	0	0	1	-360	360;
70	4435	1.18819	0.1828	0	0.103923	0.103923	0.103923	0	0	1	-360	360;
71	4103	0.0587831	0.00904375	0	0.103923	0.103923	0.103923	0	0	1	-360	360;
72	6619	0.180825	0.0278188	0	0.103923	0.103923	0.103923	0	0	1	-360	360;
73	2101	0.0769625	0.0118406	0	0.103923	0.103923	0.103923	0	0	1	-360	360;
74	5410	0.0650875	0.00464925	0	0.069282	0.069282	0.069282	0	0	1	-360	360;
75	6620	0.137275	0.009805	0	0.069282	0.069282	0.069282	0	0	1	-360	360;
76	2018	0.076125	0.0054375	0	0.069282	0.069282	0.069282	0	0	1	-360	360;
77	6155	1.07631	0.165588	0	0.103923	0.103923	0.103923	0	0	1	-360	360;
78	2230	0.832562	0.128087	0	0.103923	0.103923	0.103923	0	0	1	-360	360;
79	2577	0.144894	0.0103494	0	0.069282	0.069282	0.069282	0	0	1	-360	360;
80	1943	0.0457556	0.0142987	0	0.159349	0.159349	0.159349	0	0	1	-360	360;
81	4138	0.163144	0.0116531	0	0.069282	0.069282	0.069282	0	0	1	-360	360;
82	5295	0.158044	0.0112888	0	0.069282	0.069282	0.069282	0	0	1	-360	360;
83	4733	0.0364106	0.00560162	0	0.103923	0.103923	0.103923	0	0	1	-360	360;
84	4007	0.139019	0.00993	0	0.069282	0.069282	0.069282	0	0	1	-360	360;
85	108	0.0343575	0.00245406	0	0.069282	0.069282	0.069282	0	0	1	-360	360;
86	3845	0.239875	0.0171338	0	0.069282	0.069282	0.069282	0	0	1	-360	360;
87	1724	0.131188	0.00937063	0	0.069282	0.069282	0.069282	0	0	1	-360	360;
88	5475	0.141706	0.0101219	0	0.069282	0.069282	0.069282	0	0	1	-360	360;
89	5776	0.0921375	0.00658125	0	0.069282	0.069282	0.069282	0	0	1	-360	360;
90	4241	0.03424	0.00244569	0	0.069282	0.069282	0.069282	0	0	1	-360	360;
91	1302	0.634312	0.0975875	0	0.103923	0.103923	0.103923	0	0	1	-360	360;
92	6621	4.55369	0.700562	0	0.103923	0.103923	0.103923	0	0	1	-360	360;
93	6352	0.10745	0.007675	0	0.069282	0.069282	0.069282	0	0	1	-360	360;
94	5932	0.200088	0.0142919	0	0.069282	0.069282	0.069282	0	0	1	-360	360;
95	3549	0.034125	0.0024375	0	0.069282	0.069282	0.069282	0	0	1	-360	360;
96	5202	0.130056	0.00928938	0	0.069282	0.069282	0.069282	0	0	1	-360	360;
97	1191	0.0645437	0.00993	0	0.103923	0.103923	0.103923	0	0	1	-360	360;
98	4266	0.0574388	0.00883688	0	0.103923	0.103923	0.103923	0	0	1	-360	360;
99	1692	0.091875	0.0065625	0	0.069282	0.069282	0.069282	0	0	1	-360	360;
100	4555	0.0363388	0.00559056	0	0.103923	0.103923	0.103923	0	0	1	-360	360;
101	241	0.0400062	0.0125019	0	0.159349	0.159349	0.159349	0	0	1	-360	360;
102	1336	0.044635	0.00858375	0	0.176669	0.176669	0.176669	0	0	1	-360	360;
103	2625	0.175056	0.0125044	0	0.069282	0.069282	0.069282	0	0	1	-360	360;
104	1622	0.132038	0.00943125	0	0.069282	0.069282	0.069282	0	0	1	-360	360;
105	5878	0.068675	0.00490538	0	0.069282	0.069282	0.069282	0	0	1	-360	360;
106	2915	0.0383981	0.00590744	0	0.103923	0.103923	0.103923	0	0	1	-360	360;
107	6163	0.0572812	0.0088125	0	0.103923	0.103923	0.103923	0	0	1	-360	360;
108	2048	0.0485056	0.00346469	0	0.069282	0.069282	0.069282	0	0	1	-360	360;
109	2055	0.043365	0.00667125	0	0.103923	0.103923	0.103923	0	0	1	-360	360;
110	4694	0.0213294	0.00666562	0	0.159349	0.159349	0.159349	0	0	1	-360	360;
111	3916	0.139019	0.00993	0	0.069282	0.069282	0.069282	0	0	1	-360	360;
112	5808	0.0478219	0.00919625	0	0.176669	0.176669	0.176669	0	0	1	-360	360;
113	3743	0.192375	0.0137413	0	0.069282	0.069282	0.069282	0	0	1	-360	360;
114	2287	0.154325	0.0110231	0	0.069282	0.069282	0.069282	0	0	1	-360	360;
115	680	0.0574637	0.00884062	0	0.103923	0.103923	0.103923	0	0	1	-360	360;
116	6595	0.110663	0.00790437	0	0.069282	0.069282	0.069282	0	0	1	-360	360;
117	4625	0.132038	0.00943125	0	0.069282	0.069282	0.069282	0	0	1	-360	360;
118	4898	0.0767375	0.00548125	0	0.069282	0.069282	0.069282	0	0	1	-360	360;
119	5419	1.89669	0.291794	0	0.103923	0.103923	0.103923	0	0	1	-360	360;
120	346	0.0485056	0.00346469	0	0.069282	0.069282	0.069282	0	0	1	-360	360;
121	1259	0.110612	0.00790125	0	0.069282	0.069282	0.069282	0	0	1	-360	360;
122	3398	0.10855	0.00775313	0	0.069282	0.069282	0.069282	0	0	1	-360	360;
123	3783	0.0363388	0.00559056	0	0.103923	0.103923	0.103923	0	0	1	-360	360;
124	4237	0.18465	0.0131894	0	0.069282	0.069282	0.069282	0	0	1	-360	360;
125	3714	0.160313	0.0114506	0	0.069282	0.069282	0.069282	0	0	1	-360	360;
1417	2419	0.123769	0.00884062	0	0.069282	0.069282	0.069282	0	0	1	-360	360;
1418	3620	0.228187	0.0162994	0	0.069282	0.069282	0.069282	0	0	1	-360	360;
1419	6622	4.00E-05	2.00E-05	0	0.159349	0.159349	0.159349	0	0	1	-360	360;
1420	2438	0.0633063	0.00452175	0	0.069282	0.069282	0.069282	0	0	1	-360	360;
1421	2454	0.0632438	0.00451725	0	0.069282	0.069282	0.069282	0	0	1	-360	360;
1422	2557	0.0867438	0.006196	0	0.069282	0.069282	0.069282	0	0	1	-360	360;
1423	4551	0.03824	0.00735375	0	0.176669	0.176669	0.176669	0	0	1	-360	360;
1424	6623	4.00E-05	2.00E-05	0	0.159349	0.159349	0.159349	0	0	1	-360	360;
1425	6345	0.0767562	0.0054825	0	0.069282	0.069282	0.069282	0	0	1	-360	360;
1426	726	0.06575	0.010115	0	0.103923	0.103923	0.103923	0	0	1	-360	360;
1427	6624	4.00E-05	2.00E-05	0	0.159349	0.159349	0.159349	0	0	1	-360	360;
1428	4210	0.108687	0.00776313	0	0.069282	0.069282	0.069282	0	0	1	-360	360;
1429	3232	0.0456362	0.00702125	0	0.103923	0.103923	0.103923	0	0	1	-360	360;
1430	6625	0.203956	0.0637375	0	0.159349	0.159349	0.159349	0	0	1	-360	360;
1431	6626	4.06513	0.625375	0	0.103923	0.103923	0.103923	0	0	1	-360	360;
1432	6520	0.0603937	0.0116144	0	0.176669	0.176669	0.176669	0	0	1	-360	360;
1433	4784	0.0434338	0.00310244	0	0.069282	0.069282	0.069282	0	0	1	-360	360;
1434	1968	0.02047	0.00639688	0	0.159349	0.159349	0.159349	0	0	1	-360	360;
1435	3729	0.0381119	0.00586337	0	0.103923	0.103923	0.103923	0	0	1	-360	360;
1436	23	0.07185	0.0110544	0	0.103923	0.103923	0.103923	0	0	1	-360	360;
1437	2822	0.0345525	0.0107975	0	0.159349	0.159349	0.159349	0	0	1	-360	360;
1438	5161	0.0715	0.011	0	0.103923	0.103923	0.103923	0	0	1	-360	360;
1439	6545	0.0756562	0.0116394	0	0.103923	0.103923	0.103923	0	0	1	-360	360;
1440	1745	0.111919	0.00799437	0	0.069282	0.069282	0.069282	0	0	1	-360	360;
1441	5007	0.141375	0.0100981	0	0.069282	0.069282	0.069282	0	0	1	-360	360;
1442	4289	0.0289394	0.00904375	0	0.159349	0.159349	0.159349	0	0	1	-360	360;
1443	2192	0.123725	0.0088375	0	0.069282	0.069282	0.069282	0	0	1	-360	360;
1444	3967	0.12285	0.008775	0	0.069282	0.069282	0.069282	0	0	1	-360	360;
1445	2437	0.0392388	0.0122619	0	0.159349	0.159349	0.159349	0	0	1	-360	360;
1446	472	0.05756	0.0110694	0	0.176669	0.176669	0.176669	0	0	1	-360	360;
1447	1032	0.110738	0.00790937	0	0.069282	0.069282	0.069282	0	0	1	-360	360;
1448	6198	0.123725	0.0088375	0	0.069282	0.069282	0.069282	0	0	1	-360	360;
1449	574	0.09205	0.006575	0	0.069282	0.069282	0.069282	0	0	1	-360	360;
1450	584	0.0587538	0.00903875	0	0.103923	0.103923	0.103923	0	0	1	-360	360;
1451	4193	0.0478156	0.009195	0	0.176669	0.176669	0.176669	0	0	1	-360	360;
1452	2780	0.00956	0.00183844	0	0.176669	0.176669	0.176669	0	0	1	-360	360;
1453	6235	0.07145	0.0109925	0	0.103923	0.103923	0.103923	0	0	1	-360	360;
1454	3791	0.0516731	0.00993687	0	0.176669	0.176669	0.176669	0	0	1	-360	360;
1476	2211	0.0834312	0.0128356	0	0.103923	0.103923	0.103923	0	0	1	-360	360;
1477	2109	0.0361413	0.0112944	0	0.159349	0.159349	0.159349	0	0	1	-360	360;
1478	464	0.18985	0.0135606	0	0.069282	0.069282	0.069282	0	0	1	-360	360;
1479	3261	0.175025	0.0125019	0	0.069282	0.069282	0.069282	0	0	1	-360	360;
1480	1338	0.0782687	0.00559056	0	0.069282	0.069282	0.069282	0	0	1	-360	360;
1481	1572	0.130237	0.00930313	0	0.069282	0.069282	0.069282	0	0	1	-360	360;
1482	3546	0.0142594	0.00219375	0	0.103923	0.103923	0.103923	0	0	1	-360	360;
1483	3456	0.139006	0.00992937	0	0.069282	0.069282	0.069282	0	0	1	-360	360;
1484	3107	0.0574388	0.00883688	0	0.103923	0.103923	0.103923	0	0	1	-360	360;
1485	6627	0.0213488	0.00667125	0	0.159349	0.159349	0.159349	0	0	1	-360	360;
1486	1072	0.145625	0.0104019	0	0.069282	0.069282	0.069282	0	0	1	-360	360;
1487	4430	0.0364581	0.00560894	0	0.103923	0.103923	0.103923	0	0	1	-360	360;
1488	4976	0.0693	0.00495013	0	0.069282	0.069282	0.069282	0	0	1	-360	360;
1489	2375	0.123844	0.00884625	0	0.069282	0.069282	0.069282	0	0	1	-360	360;
1490	2631	0.0383606	0.00590162	0	0.103923	0.103923	0.103923	0	0	1	-360	360;
1491	1536	0.123681	0.00883438	0	0.069282	0.069282	0.069282	0	0	1	-360	360;
1492	3181	0.0433944	0.0135606	0	0.159349	0.159349	0.159349	0	0	1	-360	360;
1493	5227	0.0454656	0.00874312	0	0.176669	0.176669	0.176669	0	0	1	-360	360;
1494	2149	1.78219	0.274187	0	0.103923	0.103923	0.103923	0	0	1	-360	360;
1495	5826	0.0343181	0.00245131	0	0.069282	0.069282	0.069282	0	0	1	-360	360;
1456	2989	0.0921375	0.00658125	0	0.069282	0.069282	0.069282	0	0	1	-360	360;
1457	5921	0.0600169	0.0115419	0	0.176669	0.176669	0.176669	0	0	1	-360	360;
1458	1452	0.0213819	0.00411188	0	0.176669	0.176669	0.176669	0	0	1	-360	360;
1459	5102	0.154244	0.0110175	0	0.069282	0.069282	0.069282	0	0	1	-360	360;
1460	6628	1.64825	0.253581	0	0.103923	0.103923	0.103923	0	0	1	-360	360;
1461	12	0.141537	0.0101094	0	0.069282	0.069282	0.069282	0	0	1	-360	360;
1462	2752	0.0293913	0.00452175	0	0.103923	0.103923	0.103923	0	0	1	-360	360;
1463	4255	0.1966	0.0140431	0	0.069282	0.069282	0.069282	0	0	1	-360	360;
1464	2157	4.4375	0.682687	0	0.103923	0.103923	0.103923	0	0	1	-360	360;
1465	6	0.0647187	0.00462281	0	0.069282	0.069282	0.069282	0	0	1	-360	360;
1466	3754	0.233819	0.0167013	0	0.069282	0.069282	0.069282	0	0	1	-360	360;
1467	4455	0.0645375	0.00992937	0	0.103923	0.103923	0.103923	0	0	1	-360	360;
1468	3695	0.02355	0.00735937	0	0.159349	0.159349	0.159349	0	0	1	-360	360;
1469	4608	0.124119	0.00886563	0	0.069282	0.069282	0.069282	0	0	1	-360	360;
1470	5022	0.116925	0.00835187	0	0.069282	0.069282	0.069282	0	0	1	-360	360;
1471	1298	0.0768062	0.00548625	0	0.069282	0.069282	0.069282	0	0	1	-360	360;
1472	6629	0.248894	0.0382912	0	0.103923	0.103923	0.103923	0	0	1	-360	360;
1473	5011	0.0826563	0.00590394	0	0.069282	0.069282	0.069282	0	0	1	-360	360;
1474	4044	0.0343181	0.00245131	0	0.069282	0.069282	0.069282	0	0	1	-360	360;
1475	1339	0.151169	0.0107975	0	0.069282	0.069282	0.069282	0	0	1	-360	360;
6	5234	0.0685188	0.00489419	0	0.069282	0.069282	0.069282	0	0	1	-360	360;
7	735	0.07165	0.0110231	0	0.103923	0.103923	0.103923	0	0	1	-360	360;
8	6495	0.204844	0.0146319	0	0.069282	0.069282	0.069282	0	0	1	-360	360;
9	2653	0.0654	0.00467131	0	0.069282	0.069282	0.069282	0	0	1	-360	360;
10	4884	0.169575	0.0121125	0	0.069282	0.069282	0.069282	0	0	1	-360	360;
...
];
%% generator cost data
%	1	startup	shutdown	n	x1	y1	...	xn	yn
%	2	startup	shutdown	n	c(n-1)	...	c0
mpc.gencost = [
    2	0      0	3	0    0.3	 0;
    ];